trunk/Training/Boise-2019/Examples/Control_DSS-G_TCP/Master.DSS
Clear
New Circuit.ieee13nodeckt


Redirect Vsource.dss
Redirect LineCode.DSS
Redirect LoadShape.DSS
Redirect GrowthShape.DSS
Redirect TCC_Curve.DSS
Redirect Spectrum.DSS
Redirect Line.DSS
Redirect Load.DSS
Redirect Transformer.DSS
Redirect RegControl.DSS
Redirect Capacitor.DSS
Redirect Generator.DSS
Redirect Storage.DSS
Redirect SwtControl.DSS
Redirect PVSystem.DSS
Redirect Monitor.DSS
MakeBusList
Redirect BusVoltageBases.dss  ! set voltage bases
Buscoords buscoords.dss
